# BAS6 package for  MODFLOW-2005, generated by Flopy.
FREE
CONSTANT          1                                #ibound layer 1                
     999.0
CONSTANT    0.000000E+00                           #strt layer 1                  
