# Name file for MODFLOW-2005, generated by Flopy version 3.3.3.
#xll:0.0; yll:0.0; rotation:0.0; units:undefined; lenuni:0; start_datetime:1-1-1970
LIST               2  restest.list
DIS               11  restest.dis
BAS6              13  restest.bas
BCF6              15  restest.bcf
GHB               23  restest.ghb
SIP               25  restest.sip
OC                14  restest.oc
DATA(BINARY)      53  restest.cbc REPLACE
DATA(BINARY)      51  restest.hds REPLACE
