# GHB package for  MODFLOW-2005, generated by Flopy.
        24         0
        24         0 # stress period 1
         1         1         1             0.0          1000.0
         1         2         1             0.0          1000.0
         1         3         1             0.0          1000.0
         1         4         1             0.0          1000.0
         1         5         1             0.0          1000.0
         1         6         1             0.0          1000.0
         1         7         1             0.0          1000.0
         1         8         1             0.0          1000.0
         1         9         1             0.0          1000.0
         1        10         1             0.0          1000.0
         1        11         1             0.0          1000.0
         1        12         1             0.0          1000.0
         1         1        12             0.0          1000.0
         1         2        12             0.0          1000.0
         1         3        12             0.0          1000.0
         1         4        12             0.0          1000.0
         1         5        12             0.0          1000.0
         1         6        12             0.0          1000.0
         1         7        12             0.0          1000.0
         1         8        12             0.0          1000.0
         1         9        12             0.0          1000.0
         1        10        12             0.0          1000.0
         1        11        12             0.0          1000.0
         1        12        12             0.0          1000.0
        -1         0 # stress period 2
        -1         0 # stress period 3
