# DIS package for  MODFLOW-2005, generated by Flopy.
         1        12        12         3         4         0
  0
CONSTANT    1.000000E+02                           #delr                          
CONSTANT    1.000000E+02                           #delc                          
CONSTANT    1.000000E+02                           #model_top                     
CONSTANT   -5.000000E+02                           #botm layer 1                  
      2.000000             2  1.000000  TR 
      2.000000             2  1.000000  TR 
      5.000000             5  1.000000  TR 
