# DRN package for  MODFLOW-2005, generated by Flopy.
         9         0
         9         0 # stress period 1
         1         8         2             0.0             1.0
         1         8         3             0.0             1.0
         1         8         4            10.0             1.0
         1         8         5            20.0             1.0
         1         8         6            30.0             1.0
         1         8         7            50.0             1.0
         1         8         8            70.0             1.0
         1         8         9            90.0             1.0
         1         8        10           100.0             1.0
