# RCH package for  MODFLOW-2005, generated by Flopy.
         1         0
         1        -1 # Stress period 1
CONSTANT    3.000000E-08                           #rech_1                        
