# Name file for MODFLOW-2005, generated by Flopy version 3.3.3.
#xll:0.0; yll:0.0; rotation:0.0; units:undefined; lenuni:0; start_datetime:1-1-1970
LIST               2  twri.list
DIS               11  twri.dis
BAS6              13  twri.bas
BCF6              15  twri.bcf
WEL               20  twri.wel
DRN               21  twri.drn
RCH               19  twri.rch
SIP               25  twri.sip
OC                14  twri.oc
DATA(BINARY)      53  twri.cbc REPLACE
DATA(BINARY)      51  twri.hds REPLACE
