# LPF package for  MODFLOW-2005, generated by Flopy.
        53         0         0  
         1
         0
   1.000000E+00
         0
         0
CONSTANT    5.000000E-02                           #hk layer 1                    
CONSTANT    1.000000E-02                           #vka1                          
