# PCG package for  MODFLOW-2005, generated by Flopy.
60 8 1 0
0.0001 80.0 1.0 2 1 0 1.0 
