# Name file for MODFLOW-2005, generated by Flopy version 3.3.3.
#xll:0.0; yll:0.0; rotation:0.0; units:feet; lenuni:1; start_datetime:1-1-1970
LIST               2  etsdrt.list
DIS               11  etsdrt.dis
BAS6              13  etsdrt.bas
OC                14  etsdrt.oc
LPF               15  etsdrt.lpf
DRT               21  etsdrt.drt
RCH               19  etsdrt.rch
PCG               27  etsdrt.pcg
DATA(BINARY)      51  etsdrt.hds REPLACE
DATA(BINARY)      53  etsdrt.cbc REPLACE
