# RCH package for  MODFLOW-2005, generated by Flopy.
         1         0
         1        -1 # Stress period 1
CONSTANT    1.000000E-03                           #rech_1                        
