# DRT package for  MODFLOW-2005, generated by Flopy.
         1         0         0         0 RETURNFLOW
         1         0 # stress period 1
         1         5         8            60.0             2.0         1         7         3             0.4
