# BAS6 package for  MODFLOW-2005, generated by Flopy.
FREE
INTERNAL               1    (11I10) -1 #ibound layer 1                
        -1         1         1         1         1         1         1         1         1         1        -1
        -1         1         1         1         1         1         1         1         1         1        -1
        -1         1         1         1         1         1         1         1         1         1        -1
        -1         1         1         1         1         1         1         1         1         1        -1
        -1         1         1         1         1         1         1         1         1         1        -1
        -1         1         1         1         1         1         1         1         1         1        -1
        -1         1         1         1         1         1         1         1         1         1        -1
        -1         1         1         1         1         1         1         1         1         1        -1
        -1         1         1         1         1         1         1         1         1         1        -1
        -1         1         1         1         1         1         1         1         1         1        -1
        -1         1         1         1         1         1         1         1         1         1        -1
    -999.0
INTERNAL               1  (11E15.6) -1 #strt layer 1                  
   5.000000E+01   5.500000E+01   6.000000E+01   6.500000E+01   7.000000E+01   7.500000E+01   8.000000E+01   8.500000E+01   9.000000E+01   9.500000E+01   1.000000E+02
   5.000000E+01   5.500000E+01   6.000000E+01   6.500000E+01   7.000000E+01   7.500000E+01   8.000000E+01   8.500000E+01   9.000000E+01   9.500000E+01   1.000000E+02
   5.000000E+01   5.500000E+01   6.000000E+01   6.500000E+01   7.000000E+01   7.500000E+01   8.000000E+01   8.500000E+01   9.000000E+01   9.500000E+01   1.000000E+02
   5.000000E+01   5.500000E+01   6.000000E+01   6.500000E+01   7.000000E+01   7.500000E+01   8.000000E+01   8.500000E+01   9.000000E+01   9.500000E+01   1.000000E+02
   5.000000E+01   5.500000E+01   6.000000E+01   6.500000E+01   7.000000E+01   7.500000E+01   8.000000E+01   8.500000E+01   9.000000E+01   9.500000E+01   1.000000E+02
   5.000000E+01   5.500000E+01   6.000000E+01   6.500000E+01   7.000000E+01   7.500000E+01   8.000000E+01   8.500000E+01   9.000000E+01   9.500000E+01   1.000000E+02
   5.000000E+01   5.500000E+01   6.000000E+01   6.500000E+01   7.000000E+01   7.500000E+01   8.000000E+01   8.500000E+01   9.000000E+01   9.500000E+01   1.000000E+02
   5.000000E+01   5.500000E+01   6.000000E+01   6.500000E+01   7.000000E+01   7.500000E+01   8.000000E+01   8.500000E+01   9.000000E+01   9.500000E+01   1.000000E+02
   5.000000E+01   5.500000E+01   6.000000E+01   6.500000E+01   7.000000E+01   7.500000E+01   8.000000E+01   8.500000E+01   9.000000E+01   9.500000E+01   1.000000E+02
   5.000000E+01   5.500000E+01   6.000000E+01   6.500000E+01   7.000000E+01   7.500000E+01   8.000000E+01   8.500000E+01   9.000000E+01   9.500000E+01   1.000000E+02
   5.000000E+01   5.500000E+01   6.000000E+01   6.500000E+01   7.000000E+01   7.500000E+01   8.000000E+01   8.500000E+01   9.000000E+01   9.500000E+01   1.000000E+02
