# Name file for MODFLOW-2005, generated by Flopy version 3.3.3.
#xll:0.0; yll:0.0; rotation:0.0; units:undefined; lenuni:0; start_datetime:1-1-1970
LIST               7  twrihfb.lst
DIS               10  twrihfb.dis
BAS6               8  twrihfb.ba6
BCF6              11  twrihfb.bc6
WEL               12  twrihfb.wel
DRN               13  twrihfb.drn
RCH               18  twrihfb.rch
SIP               19  twrihfb.sip
OC                50  twrihfb.oc
HFB6              30  twrihfb.hfb
DATA(BINARY)      51  twrihfb.hds REPLACE
DATA(BINARY)      53  twrihfb.cbc REPLACE
