# SIP package for  MODFLOW-2005, generated by Flopy.
50 5
1.0 1e-05 1 0.0 1
