# BAS6 package for  MODFLOW-2005, generated by Flopy.
FREE
INTERNAL               1    (12I10) -1 #ibound layer 1                
        -1         1         1         1         1         1         1         1         1         1         1        -1
        -1         1         1         1         1         1         1         1         1         1         1        -1
        -1         1         1         1         1         1         1         1         1         1         1        -1
        -1         1         1         1         1         1         1         1         1         1         1        -1
        -1         1         1         1         1         1         1         1         1         1         1        -1
        -1         1         1         1         1         1         1         1         1         1         1        -1
        -1         1         1         1         1         1         1         1         1         1         1        -1
        -1         1         1         1         1         1         1         1         1         1         1        -1
        -1         1         1         1         1         1         1         1         1         1         1        -1
        -1         1         1         1         1         1         1         1         1         1         1        -1
INTERNAL               1    (12I10) -1 #ibound layer 2                
        -1         1         1         1         1         1         1         1         1         1         1        -1
        -1         1         1         1         1         1         1         1         1         1         1        -1
        -1         1         1         1         1         1         1         1         1         1         1        -1
        -1         1         1         1         1         1         1         1         1         1         1        -1
        -1         1         1         1         1         1         1         1         1         1         1        -1
        -1         1         1         1         1         1         1         1         1         1         1        -1
        -1         1         1         1         1         1         1         1         1         1         1        -1
        -1         1         1         1         1         1         1         1         1         1         1        -1
        -1         1         1         1         1         1         1         1         1         1         1        -1
        -1         1         1         1         1         1         1         1         1         1         1        -1
    444.44
INTERNAL               1  (12E15.6) -1 #strt layer 1                  
   0.000000E+00   1.100000E+01   1.200000E+01   1.300000E+01   1.400000E+01   1.500000E+01   1.600000E+01   1.700000E+01   1.800000E+01   1.900000E+01   2.000000E+01   1.100000E+01
   0.000000E+00   1.100000E+01   1.200000E+01   1.300000E+01   1.400000E+01   1.500000E+01   1.600000E+01   1.700000E+01   1.800000E+01   1.900000E+01   2.000000E+01   1.100000E+01
   0.000000E+00   1.100000E+01   1.200000E+01   1.300000E+01   1.400000E+01   1.500000E+01   1.600000E+01   1.700000E+01   1.800000E+01   1.900000E+01   2.000000E+01   1.100000E+01
   0.000000E+00   1.100000E+01   1.200000E+01   1.300000E+01   1.400000E+01   1.500000E+01   1.600000E+01   1.700000E+01   1.800000E+01   1.900000E+01   2.000000E+01   1.100000E+01
   0.000000E+00   1.100000E+01   1.200000E+01   1.300000E+01   1.400000E+01   1.500000E+01   1.600000E+01   1.700000E+01   1.800000E+01   1.900000E+01   2.000000E+01   1.100000E+01
   0.000000E+00   1.100000E+01   1.200000E+01   1.300000E+01   1.400000E+01   1.500000E+01   1.600000E+01   1.700000E+01   1.800000E+01   1.900000E+01   2.000000E+01   1.100000E+01
   0.000000E+00   1.100000E+01   1.200000E+01   1.300000E+01   1.400000E+01   1.500000E+01   1.600000E+01   1.700000E+01   1.800000E+01   1.900000E+01   2.000000E+01   1.100000E+01
   0.000000E+00   1.100000E+01   1.200000E+01   1.300000E+01   1.400000E+01   1.500000E+01   1.600000E+01   1.700000E+01   1.800000E+01   1.900000E+01   2.000000E+01   1.100000E+01
   0.000000E+00   1.100000E+01   1.200000E+01   1.300000E+01   1.400000E+01   1.500000E+01   1.600000E+01   1.700000E+01   1.800000E+01   1.900000E+01   2.000000E+01   1.100000E+01
   0.000000E+00   1.100000E+01   1.200000E+01   1.300000E+01   1.400000E+01   1.500000E+01   1.600000E+01   1.700000E+01   1.800000E+01   1.900000E+01   2.000000E+01   1.100000E+01
INTERNAL               1  (12E15.6) -1 #strt layer 2                  
   0.000000E+00   1.100000E+01   1.200000E+01   1.300000E+01   1.400000E+01   1.500000E+01   1.600000E+01   1.700000E+01   1.800000E+01   1.900000E+01   2.000000E+01   1.100000E+01
   0.000000E+00   1.100000E+01   1.200000E+01   1.300000E+01   1.400000E+01   1.500000E+01   1.600000E+01   1.700000E+01   1.800000E+01   1.900000E+01   2.000000E+01   1.100000E+01
   0.000000E+00   1.100000E+01   1.200000E+01   1.300000E+01   1.400000E+01   1.500000E+01   1.600000E+01   1.700000E+01   1.800000E+01   1.900000E+01   2.000000E+01   1.100000E+01
   0.000000E+00   1.100000E+01   1.200000E+01   1.300000E+01   1.400000E+01   1.500000E+01   1.600000E+01   1.700000E+01   1.800000E+01   1.900000E+01   2.000000E+01   1.100000E+01
   0.000000E+00   1.100000E+01   1.200000E+01   1.300000E+01   1.400000E+01   1.500000E+01   1.600000E+01   1.700000E+01   1.800000E+01   1.900000E+01   2.000000E+01   1.100000E+01
   0.000000E+00   1.100000E+01   1.200000E+01   1.300000E+01   1.400000E+01   1.500000E+01   1.600000E+01   1.700000E+01   1.800000E+01   1.900000E+01   2.000000E+01   1.100000E+01
   0.000000E+00   1.100000E+01   1.200000E+01   1.300000E+01   1.400000E+01   1.500000E+01   1.600000E+01   1.700000E+01   1.800000E+01   1.900000E+01   2.000000E+01   1.100000E+01
   0.000000E+00   1.100000E+01   1.200000E+01   1.300000E+01   1.400000E+01   1.500000E+01   1.600000E+01   1.700000E+01   1.800000E+01   1.900000E+01   2.000000E+01   1.100000E+01
   0.000000E+00   1.100000E+01   1.200000E+01   1.300000E+01   1.400000E+01   1.500000E+01   1.600000E+01   1.700000E+01   1.800000E+01   1.900000E+01   2.000000E+01   1.100000E+01
   0.000000E+00   1.100000E+01   1.200000E+01   1.300000E+01   1.400000E+01   1.500000E+01   1.600000E+01   1.700000E+01   1.800000E+01   1.900000E+01   2.000000E+01   1.100000E+01
