# Name file for MODFLOW-2005, generated by Flopy version 3.3.3.
#xll:0.0; yll:0.0; rotation:0.0; units:undefined; lenuni:0; start_datetime:1-1-1970
LIST               2  ibs2k.list
DIS               11  ibs2k.dis
BAS6              13  ibs2k.bas
BCF6              15  ibs2k.bcf
OC                14  ibs2k.oc
SIP               25  ibs2k.sip
DATA(BINARY)      53  ibs2k.cbc REPLACE
DATA(BINARY)      51  ibs2k.hds REPLACE
