# DIS package for  MODFLOW-2005, generated by Flopy.
         2        10        12         3         4         0
  0  0
CONSTANT    1.000000E+03                           #delr                          
CONSTANT    1.000000E+03                           #delc                          
CONSTANT   -5.000000E+02                           #model_top                     
INTERNAL               1  (12E15.6) -1 #botm layer 1                  
  -6.000000E+02  -6.000000E+02  -6.000000E+02  -6.000000E+02  -6.000000E+02  -6.000000E+02  -6.000000E+02  -6.000000E+02  -6.000000E+02  -6.000000E+02  -6.000000E+02  -6.000000E+02
  -6.000000E+02  -6.000000E+02  -6.000000E+02  -6.000000E+02  -6.000000E+02  -6.000000E+02  -6.000000E+02  -6.000000E+02  -6.000000E+02  -6.000000E+02  -6.000000E+02  -6.000000E+02
  -6.000000E+02  -6.000000E+02  -6.000000E+02  -6.000000E+02  -6.000000E+02  -6.000000E+02  -6.000000E+02  -6.000000E+02  -6.000000E+02  -6.000000E+02  -6.000000E+02  -6.000000E+02
  -6.000000E+02  -6.000000E+02  -6.000000E+02  -6.000000E+02  -6.000000E+02  -6.000000E+02  -6.000000E+02  -6.000000E+02  -6.000000E+02  -6.000000E+02  -6.000000E+02  -6.000000E+02
  -6.000000E+02  -6.000000E+02  -6.000000E+02  -6.000000E+02  -6.000000E+02  -6.000000E+02  -6.000000E+02  -6.000000E+02  -6.000000E+02  -6.000000E+02  -6.000000E+02  -6.000000E+02
  -6.000000E+02  -6.000000E+02  -6.000000E+02  -6.000000E+02  -6.000000E+02  -6.000000E+02  -6.000000E+02  -6.000000E+02  -6.000000E+02  -6.000000E+02  -6.000000E+02  -6.000000E+02
  -6.000000E+02  -6.000000E+02  -6.000000E+02  -6.000000E+02  -6.000000E+02  -6.000000E+02  -6.000000E+02  -6.000000E+02  -6.000000E+02  -6.000000E+02  -6.000000E+02  -6.000000E+02
  -6.000000E+02  -6.000000E+02  -6.000000E+02  -6.000000E+02  -6.000000E+02  -6.000000E+02  -6.000000E+02  -6.000000E+02  -6.000000E+02  -6.000000E+02  -6.000000E+02  -6.000000E+02
  -6.000000E+02  -6.000000E+02  -6.000000E+02  -6.000000E+02  -6.000000E+02  -6.000000E+02  -6.000000E+02  -6.000000E+02  -6.000000E+02  -6.000000E+02  -6.000000E+02  -6.000000E+02
  -6.000000E+02  -6.000000E+02  -6.000000E+02  -6.000000E+02  -6.000000E+02  -6.000000E+02  -6.000000E+02  -6.000000E+02  -6.000000E+02  -6.000000E+02  -6.000000E+02  -6.000000E+02
INTERNAL               1  (12E15.6) -1 #botm layer 2                  
  -7.000000E+02  -7.000000E+02  -7.000000E+02  -7.000000E+02  -7.000000E+02  -7.000000E+02  -7.000000E+02  -7.000000E+02  -7.000000E+02  -7.000000E+02  -7.000000E+02  -7.000000E+02
  -7.000000E+02  -7.000000E+02  -7.000000E+02  -7.000000E+02  -7.000000E+02  -7.000000E+02  -7.000000E+02  -7.000000E+02  -7.000000E+02  -7.000000E+02  -7.000000E+02  -7.000000E+02
  -7.000000E+02  -7.000000E+02  -7.000000E+02  -7.000000E+02  -7.000000E+02  -7.000000E+02  -7.000000E+02  -7.000000E+02  -7.000000E+02  -7.000000E+02  -7.000000E+02  -7.000000E+02
  -7.000000E+02  -7.000000E+02  -7.000000E+02  -7.000000E+02  -7.000000E+02  -7.000000E+02  -7.000000E+02  -7.000000E+02  -7.000000E+02  -7.000000E+02  -7.000000E+02  -7.000000E+02
  -7.000000E+02  -7.000000E+02  -7.000000E+02  -7.000000E+02  -7.000000E+02  -7.000000E+02  -7.000000E+02  -7.000000E+02  -7.000000E+02  -7.000000E+02  -7.000000E+02  -7.000000E+02
  -7.000000E+02  -7.000000E+02  -7.000000E+02  -7.000000E+02  -7.000000E+02  -7.000000E+02  -7.000000E+02  -7.000000E+02  -7.000000E+02  -7.000000E+02  -7.000000E+02  -7.000000E+02
  -7.000000E+02  -7.000000E+02  -7.000000E+02  -7.000000E+02  -7.000000E+02  -7.000000E+02  -7.000000E+02  -7.000000E+02  -7.000000E+02  -7.000000E+02  -7.000000E+02  -7.000000E+02
  -7.000000E+02  -7.000000E+02  -7.000000E+02  -7.000000E+02  -7.000000E+02  -7.000000E+02  -7.000000E+02  -7.000000E+02  -7.000000E+02  -7.000000E+02  -7.000000E+02  -7.000000E+02
  -7.000000E+02  -7.000000E+02  -7.000000E+02  -7.000000E+02  -7.000000E+02  -7.000000E+02  -7.000000E+02  -7.000000E+02  -7.000000E+02  -7.000000E+02  -7.000000E+02  -7.000000E+02
  -7.000000E+02  -7.000000E+02  -7.000000E+02  -7.000000E+02  -7.000000E+02  -7.000000E+02  -7.000000E+02  -7.000000E+02  -7.000000E+02  -7.000000E+02  -7.000000E+02  -7.000000E+02
   1000.000000            10  1.500000  TR 
   1000.000000            10  1.500000  TR 
   1000.000000            10  1.500000  TR 
