# WEL package for  MODFLOW-2005, generated by Flopy.
        15         0 
        15         0 # stress period 1
         3         5        11            -5.0
         2         4         6            -5.0
         2         6        12            -5.0
         1         9         8            -5.0
         1         9        10            -5.0
         1         9        12            -5.0
         1         9        14            -5.0
         1        11         8            -5.0
         1        11        10            -5.0
         1        11        12            -5.0
         1        11        14            -5.0
         1        13         8            -5.0
         1        13        10            -5.0
         1        13        12            -5.0
         1        13        14            -5.0
