# HFB6 package for  MODFLOW-2005, generated by Flopy.
         0         0         8
         1        10        14        10        15        4e-07
         1        10        13        10        14        4e-07
         1        10        14        11        14        4e-07
         1         9        14        10        14        4e-07
         3         6        12         6        13        8e-08
         3         6        11         6        12        8e-08
         3         6        12         7        12        8e-08
         3         5        12         6        12        8e-08
         0