# DIS package for  MODFLOW-2005, generated by Flopy.
         3        15        15         1         1         0
  1  1  0
CONSTANT    5.000000E+03                           #delr                          
CONSTANT    5.000000E+03                           #delc                          
CONSTANT    2.000000E+02                           #model_top                     
INTERNAL               1  (15E15.6) -1 #botm layer 1                  
  -1.500000E+02  -1.500000E+02  -1.500000E+02  -1.500000E+02  -1.500000E+02  -1.500000E+02  -1.500000E+02  -1.500000E+02  -1.500000E+02  -1.500000E+02  -1.500000E+02  -1.500000E+02  -1.500000E+02  -1.500000E+02  -1.500000E+02
  -1.500000E+02  -1.500000E+02  -1.500000E+02  -1.500000E+02  -1.500000E+02  -1.500000E+02  -1.500000E+02  -1.500000E+02  -1.500000E+02  -1.500000E+02  -1.500000E+02  -1.500000E+02  -1.500000E+02  -1.500000E+02  -1.500000E+02
  -1.500000E+02  -1.500000E+02  -1.500000E+02  -1.500000E+02  -1.500000E+02  -1.500000E+02  -1.500000E+02  -1.500000E+02  -1.500000E+02  -1.500000E+02  -1.500000E+02  -1.500000E+02  -1.500000E+02  -1.500000E+02  -1.500000E+02
  -1.500000E+02  -1.500000E+02  -1.500000E+02  -1.500000E+02  -1.500000E+02  -1.500000E+02  -1.500000E+02  -1.500000E+02  -1.500000E+02  -1.500000E+02  -1.500000E+02  -1.500000E+02  -1.500000E+02  -1.500000E+02  -1.500000E+02
  -1.500000E+02  -1.500000E+02  -1.500000E+02  -1.500000E+02  -1.500000E+02  -1.500000E+02  -1.500000E+02  -1.500000E+02  -1.500000E+02  -1.500000E+02  -1.500000E+02  -1.500000E+02  -1.500000E+02  -1.500000E+02  -1.500000E+02
  -1.500000E+02  -1.500000E+02  -1.500000E+02  -1.500000E+02  -1.500000E+02  -1.500000E+02  -1.500000E+02  -1.500000E+02  -1.500000E+02  -1.500000E+02  -1.500000E+02  -1.500000E+02  -1.500000E+02  -1.500000E+02  -1.500000E+02
  -1.500000E+02  -1.500000E+02  -1.500000E+02  -1.500000E+02  -1.500000E+02  -1.500000E+02  -1.500000E+02  -1.500000E+02  -1.500000E+02  -1.500000E+02  -1.500000E+02  -1.500000E+02  -1.500000E+02  -1.500000E+02  -1.500000E+02
  -1.500000E+02  -1.500000E+02  -1.500000E+02  -1.500000E+02  -1.500000E+02  -1.500000E+02  -1.500000E+02  -1.500000E+02  -1.500000E+02  -1.500000E+02  -1.500000E+02  -1.500000E+02  -1.500000E+02  -1.500000E+02  -1.500000E+02
  -1.500000E+02  -1.500000E+02  -1.500000E+02  -1.500000E+02  -1.500000E+02  -1.500000E+02  -1.500000E+02  -1.500000E+02  -1.500000E+02  -1.500000E+02  -1.500000E+02  -1.500000E+02  -1.500000E+02  -1.500000E+02  -1.500000E+02
  -1.500000E+02  -1.500000E+02  -1.500000E+02  -1.500000E+02  -1.500000E+02  -1.500000E+02  -1.500000E+02  -1.500000E+02  -1.500000E+02  -1.500000E+02  -1.500000E+02  -1.500000E+02  -1.500000E+02  -1.500000E+02  -1.500000E+02
  -1.500000E+02  -1.500000E+02  -1.500000E+02  -1.500000E+02  -1.500000E+02  -1.500000E+02  -1.500000E+02  -1.500000E+02  -1.500000E+02  -1.500000E+02  -1.500000E+02  -1.500000E+02  -1.500000E+02  -1.500000E+02  -1.500000E+02
  -1.500000E+02  -1.500000E+02  -1.500000E+02  -1.500000E+02  -1.500000E+02  -1.500000E+02  -1.500000E+02  -1.500000E+02  -1.500000E+02  -1.500000E+02  -1.500000E+02  -1.500000E+02  -1.500000E+02  -1.500000E+02  -1.500000E+02
  -1.500000E+02  -1.500000E+02  -1.500000E+02  -1.500000E+02  -1.500000E+02  -1.500000E+02  -1.500000E+02  -1.500000E+02  -1.500000E+02  -1.500000E+02  -1.500000E+02  -1.500000E+02  -1.500000E+02  -1.500000E+02  -1.500000E+02
  -1.500000E+02  -1.500000E+02  -1.500000E+02  -1.500000E+02  -1.500000E+02  -1.500000E+02  -1.500000E+02  -1.500000E+02  -1.500000E+02  -1.500000E+02  -1.500000E+02  -1.500000E+02  -1.500000E+02  -1.500000E+02  -1.500000E+02
  -1.500000E+02  -1.500000E+02  -1.500000E+02  -1.500000E+02  -1.500000E+02  -1.500000E+02  -1.500000E+02  -1.500000E+02  -1.500000E+02  -1.500000E+02  -1.500000E+02  -1.500000E+02  -1.500000E+02  -1.500000E+02  -1.500000E+02
INTERNAL               1  (15E15.6) -1 #botm layer 2                  
  -2.000000E+02  -2.000000E+02  -2.000000E+02  -2.000000E+02  -2.000000E+02  -2.000000E+02  -2.000000E+02  -2.000000E+02  -2.000000E+02  -2.000000E+02  -2.000000E+02  -2.000000E+02  -2.000000E+02  -2.000000E+02  -2.000000E+02
  -2.000000E+02  -2.000000E+02  -2.000000E+02  -2.000000E+02  -2.000000E+02  -2.000000E+02  -2.000000E+02  -2.000000E+02  -2.000000E+02  -2.000000E+02  -2.000000E+02  -2.000000E+02  -2.000000E+02  -2.000000E+02  -2.000000E+02
  -2.000000E+02  -2.000000E+02  -2.000000E+02  -2.000000E+02  -2.000000E+02  -2.000000E+02  -2.000000E+02  -2.000000E+02  -2.000000E+02  -2.000000E+02  -2.000000E+02  -2.000000E+02  -2.000000E+02  -2.000000E+02  -2.000000E+02
  -2.000000E+02  -2.000000E+02  -2.000000E+02  -2.000000E+02  -2.000000E+02  -2.000000E+02  -2.000000E+02  -2.000000E+02  -2.000000E+02  -2.000000E+02  -2.000000E+02  -2.000000E+02  -2.000000E+02  -2.000000E+02  -2.000000E+02
  -2.000000E+02  -2.000000E+02  -2.000000E+02  -2.000000E+02  -2.000000E+02  -2.000000E+02  -2.000000E+02  -2.000000E+02  -2.000000E+02  -2.000000E+02  -2.000000E+02  -2.000000E+02  -2.000000E+02  -2.000000E+02  -2.000000E+02
  -2.000000E+02  -2.000000E+02  -2.000000E+02  -2.000000E+02  -2.000000E+02  -2.000000E+02  -2.000000E+02  -2.000000E+02  -2.000000E+02  -2.000000E+02  -2.000000E+02  -2.000000E+02  -2.000000E+02  -2.000000E+02  -2.000000E+02
  -2.000000E+02  -2.000000E+02  -2.000000E+02  -2.000000E+02  -2.000000E+02  -2.000000E+02  -2.000000E+02  -2.000000E+02  -2.000000E+02  -2.000000E+02  -2.000000E+02  -2.000000E+02  -2.000000E+02  -2.000000E+02  -2.000000E+02
  -2.000000E+02  -2.000000E+02  -2.000000E+02  -2.000000E+02  -2.000000E+02  -2.000000E+02  -2.000000E+02  -2.000000E+02  -2.000000E+02  -2.000000E+02  -2.000000E+02  -2.000000E+02  -2.000000E+02  -2.000000E+02  -2.000000E+02
  -2.000000E+02  -2.000000E+02  -2.000000E+02  -2.000000E+02  -2.000000E+02  -2.000000E+02  -2.000000E+02  -2.000000E+02  -2.000000E+02  -2.000000E+02  -2.000000E+02  -2.000000E+02  -2.000000E+02  -2.000000E+02  -2.000000E+02
  -2.000000E+02  -2.000000E+02  -2.000000E+02  -2.000000E+02  -2.000000E+02  -2.000000E+02  -2.000000E+02  -2.000000E+02  -2.000000E+02  -2.000000E+02  -2.000000E+02  -2.000000E+02  -2.000000E+02  -2.000000E+02  -2.000000E+02
  -2.000000E+02  -2.000000E+02  -2.000000E+02  -2.000000E+02  -2.000000E+02  -2.000000E+02  -2.000000E+02  -2.000000E+02  -2.000000E+02  -2.000000E+02  -2.000000E+02  -2.000000E+02  -2.000000E+02  -2.000000E+02  -2.000000E+02
  -2.000000E+02  -2.000000E+02  -2.000000E+02  -2.000000E+02  -2.000000E+02  -2.000000E+02  -2.000000E+02  -2.000000E+02  -2.000000E+02  -2.000000E+02  -2.000000E+02  -2.000000E+02  -2.000000E+02  -2.000000E+02  -2.000000E+02
  -2.000000E+02  -2.000000E+02  -2.000000E+02  -2.000000E+02  -2.000000E+02  -2.000000E+02  -2.000000E+02  -2.000000E+02  -2.000000E+02  -2.000000E+02  -2.000000E+02  -2.000000E+02  -2.000000E+02  -2.000000E+02  -2.000000E+02
  -2.000000E+02  -2.000000E+02  -2.000000E+02  -2.000000E+02  -2.000000E+02  -2.000000E+02  -2.000000E+02  -2.000000E+02  -2.000000E+02  -2.000000E+02  -2.000000E+02  -2.000000E+02  -2.000000E+02  -2.000000E+02  -2.000000E+02
  -2.000000E+02  -2.000000E+02  -2.000000E+02  -2.000000E+02  -2.000000E+02  -2.000000E+02  -2.000000E+02  -2.000000E+02  -2.000000E+02  -2.000000E+02  -2.000000E+02  -2.000000E+02  -2.000000E+02  -2.000000E+02  -2.000000E+02
INTERNAL               1  (15E15.6) -1 #botm layer 3                  
  -3.000000E+02  -3.000000E+02  -3.000000E+02  -3.000000E+02  -3.000000E+02  -3.000000E+02  -3.000000E+02  -3.000000E+02  -3.000000E+02  -3.000000E+02  -3.000000E+02  -3.000000E+02  -3.000000E+02  -3.000000E+02  -3.000000E+02
  -3.000000E+02  -3.000000E+02  -3.000000E+02  -3.000000E+02  -3.000000E+02  -3.000000E+02  -3.000000E+02  -3.000000E+02  -3.000000E+02  -3.000000E+02  -3.000000E+02  -3.000000E+02  -3.000000E+02  -3.000000E+02  -3.000000E+02
  -3.000000E+02  -3.000000E+02  -3.000000E+02  -3.000000E+02  -3.000000E+02  -3.000000E+02  -3.000000E+02  -3.000000E+02  -3.000000E+02  -3.000000E+02  -3.000000E+02  -3.000000E+02  -3.000000E+02  -3.000000E+02  -3.000000E+02
  -3.000000E+02  -3.000000E+02  -3.000000E+02  -3.000000E+02  -3.000000E+02  -3.000000E+02  -3.000000E+02  -3.000000E+02  -3.000000E+02  -3.000000E+02  -3.000000E+02  -3.000000E+02  -3.000000E+02  -3.000000E+02  -3.000000E+02
  -3.000000E+02  -3.000000E+02  -3.000000E+02  -3.000000E+02  -3.000000E+02  -3.000000E+02  -3.000000E+02  -3.000000E+02  -3.000000E+02  -3.000000E+02  -3.000000E+02  -3.000000E+02  -3.000000E+02  -3.000000E+02  -3.000000E+02
  -3.000000E+02  -3.000000E+02  -3.000000E+02  -3.000000E+02  -3.000000E+02  -3.000000E+02  -3.000000E+02  -3.000000E+02  -3.000000E+02  -3.000000E+02  -3.000000E+02  -3.000000E+02  -3.000000E+02  -3.000000E+02  -3.000000E+02
  -3.000000E+02  -3.000000E+02  -3.000000E+02  -3.000000E+02  -3.000000E+02  -3.000000E+02  -3.000000E+02  -3.000000E+02  -3.000000E+02  -3.000000E+02  -3.000000E+02  -3.000000E+02  -3.000000E+02  -3.000000E+02  -3.000000E+02
  -3.000000E+02  -3.000000E+02  -3.000000E+02  -3.000000E+02  -3.000000E+02  -3.000000E+02  -3.000000E+02  -3.000000E+02  -3.000000E+02  -3.000000E+02  -3.000000E+02  -3.000000E+02  -3.000000E+02  -3.000000E+02  -3.000000E+02
  -3.000000E+02  -3.000000E+02  -3.000000E+02  -3.000000E+02  -3.000000E+02  -3.000000E+02  -3.000000E+02  -3.000000E+02  -3.000000E+02  -3.000000E+02  -3.000000E+02  -3.000000E+02  -3.000000E+02  -3.000000E+02  -3.000000E+02
  -3.000000E+02  -3.000000E+02  -3.000000E+02  -3.000000E+02  -3.000000E+02  -3.000000E+02  -3.000000E+02  -3.000000E+02  -3.000000E+02  -3.000000E+02  -3.000000E+02  -3.000000E+02  -3.000000E+02  -3.000000E+02  -3.000000E+02
  -3.000000E+02  -3.000000E+02  -3.000000E+02  -3.000000E+02  -3.000000E+02  -3.000000E+02  -3.000000E+02  -3.000000E+02  -3.000000E+02  -3.000000E+02  -3.000000E+02  -3.000000E+02  -3.000000E+02  -3.000000E+02  -3.000000E+02
  -3.000000E+02  -3.000000E+02  -3.000000E+02  -3.000000E+02  -3.000000E+02  -3.000000E+02  -3.000000E+02  -3.000000E+02  -3.000000E+02  -3.000000E+02  -3.000000E+02  -3.000000E+02  -3.000000E+02  -3.000000E+02  -3.000000E+02
  -3.000000E+02  -3.000000E+02  -3.000000E+02  -3.000000E+02  -3.000000E+02  -3.000000E+02  -3.000000E+02  -3.000000E+02  -3.000000E+02  -3.000000E+02  -3.000000E+02  -3.000000E+02  -3.000000E+02  -3.000000E+02  -3.000000E+02
  -3.000000E+02  -3.000000E+02  -3.000000E+02  -3.000000E+02  -3.000000E+02  -3.000000E+02  -3.000000E+02  -3.000000E+02  -3.000000E+02  -3.000000E+02  -3.000000E+02  -3.000000E+02  -3.000000E+02  -3.000000E+02  -3.000000E+02
  -3.000000E+02  -3.000000E+02  -3.000000E+02  -3.000000E+02  -3.000000E+02  -3.000000E+02  -3.000000E+02  -3.000000E+02  -3.000000E+02  -3.000000E+02  -3.000000E+02  -3.000000E+02  -3.000000E+02  -3.000000E+02  -3.000000E+02
INTERNAL               1  (15E15.6) -1 #botm layer 4                  
  -3.500000E+02  -3.500000E+02  -3.500000E+02  -3.500000E+02  -3.500000E+02  -3.500000E+02  -3.500000E+02  -3.500000E+02  -3.500000E+02  -3.500000E+02  -3.500000E+02  -3.500000E+02  -3.500000E+02  -3.500000E+02  -3.500000E+02
  -3.500000E+02  -3.500000E+02  -3.500000E+02  -3.500000E+02  -3.500000E+02  -3.500000E+02  -3.500000E+02  -3.500000E+02  -3.500000E+02  -3.500000E+02  -3.500000E+02  -3.500000E+02  -3.500000E+02  -3.500000E+02  -3.500000E+02
  -3.500000E+02  -3.500000E+02  -3.500000E+02  -3.500000E+02  -3.500000E+02  -3.500000E+02  -3.500000E+02  -3.500000E+02  -3.500000E+02  -3.500000E+02  -3.500000E+02  -3.500000E+02  -3.500000E+02  -3.500000E+02  -3.500000E+02
  -3.500000E+02  -3.500000E+02  -3.500000E+02  -3.500000E+02  -3.500000E+02  -3.500000E+02  -3.500000E+02  -3.500000E+02  -3.500000E+02  -3.500000E+02  -3.500000E+02  -3.500000E+02  -3.500000E+02  -3.500000E+02  -3.500000E+02
  -3.500000E+02  -3.500000E+02  -3.500000E+02  -3.500000E+02  -3.500000E+02  -3.500000E+02  -3.500000E+02  -3.500000E+02  -3.500000E+02  -3.500000E+02  -3.500000E+02  -3.500000E+02  -3.500000E+02  -3.500000E+02  -3.500000E+02
  -3.500000E+02  -3.500000E+02  -3.500000E+02  -3.500000E+02  -3.500000E+02  -3.500000E+02  -3.500000E+02  -3.500000E+02  -3.500000E+02  -3.500000E+02  -3.500000E+02  -3.500000E+02  -3.500000E+02  -3.500000E+02  -3.500000E+02
  -3.500000E+02  -3.500000E+02  -3.500000E+02  -3.500000E+02  -3.500000E+02  -3.500000E+02  -3.500000E+02  -3.500000E+02  -3.500000E+02  -3.500000E+02  -3.500000E+02  -3.500000E+02  -3.500000E+02  -3.500000E+02  -3.500000E+02
  -3.500000E+02  -3.500000E+02  -3.500000E+02  -3.500000E+02  -3.500000E+02  -3.500000E+02  -3.500000E+02  -3.500000E+02  -3.500000E+02  -3.500000E+02  -3.500000E+02  -3.500000E+02  -3.500000E+02  -3.500000E+02  -3.500000E+02
  -3.500000E+02  -3.500000E+02  -3.500000E+02  -3.500000E+02  -3.500000E+02  -3.500000E+02  -3.500000E+02  -3.500000E+02  -3.500000E+02  -3.500000E+02  -3.500000E+02  -3.500000E+02  -3.500000E+02  -3.500000E+02  -3.500000E+02
  -3.500000E+02  -3.500000E+02  -3.500000E+02  -3.500000E+02  -3.500000E+02  -3.500000E+02  -3.500000E+02  -3.500000E+02  -3.500000E+02  -3.500000E+02  -3.500000E+02  -3.500000E+02  -3.500000E+02  -3.500000E+02  -3.500000E+02
  -3.500000E+02  -3.500000E+02  -3.500000E+02  -3.500000E+02  -3.500000E+02  -3.500000E+02  -3.500000E+02  -3.500000E+02  -3.500000E+02  -3.500000E+02  -3.500000E+02  -3.500000E+02  -3.500000E+02  -3.500000E+02  -3.500000E+02
  -3.500000E+02  -3.500000E+02  -3.500000E+02  -3.500000E+02  -3.500000E+02  -3.500000E+02  -3.500000E+02  -3.500000E+02  -3.500000E+02  -3.500000E+02  -3.500000E+02  -3.500000E+02  -3.500000E+02  -3.500000E+02  -3.500000E+02
  -3.500000E+02  -3.500000E+02  -3.500000E+02  -3.500000E+02  -3.500000E+02  -3.500000E+02  -3.500000E+02  -3.500000E+02  -3.500000E+02  -3.500000E+02  -3.500000E+02  -3.500000E+02  -3.500000E+02  -3.500000E+02  -3.500000E+02
  -3.500000E+02  -3.500000E+02  -3.500000E+02  -3.500000E+02  -3.500000E+02  -3.500000E+02  -3.500000E+02  -3.500000E+02  -3.500000E+02  -3.500000E+02  -3.500000E+02  -3.500000E+02  -3.500000E+02  -3.500000E+02  -3.500000E+02
  -3.500000E+02  -3.500000E+02  -3.500000E+02  -3.500000E+02  -3.500000E+02  -3.500000E+02  -3.500000E+02  -3.500000E+02  -3.500000E+02  -3.500000E+02  -3.500000E+02  -3.500000E+02  -3.500000E+02  -3.500000E+02  -3.500000E+02
INTERNAL               1  (15E15.6) -1 #botm layer 5                  
  -4.500000E+02  -4.500000E+02  -4.500000E+02  -4.500000E+02  -4.500000E+02  -4.500000E+02  -4.500000E+02  -4.500000E+02  -4.500000E+02  -4.500000E+02  -4.500000E+02  -4.500000E+02  -4.500000E+02  -4.500000E+02  -4.500000E+02
  -4.500000E+02  -4.500000E+02  -4.500000E+02  -4.500000E+02  -4.500000E+02  -4.500000E+02  -4.500000E+02  -4.500000E+02  -4.500000E+02  -4.500000E+02  -4.500000E+02  -4.500000E+02  -4.500000E+02  -4.500000E+02  -4.500000E+02
  -4.500000E+02  -4.500000E+02  -4.500000E+02  -4.500000E+02  -4.500000E+02  -4.500000E+02  -4.500000E+02  -4.500000E+02  -4.500000E+02  -4.500000E+02  -4.500000E+02  -4.500000E+02  -4.500000E+02  -4.500000E+02  -4.500000E+02
  -4.500000E+02  -4.500000E+02  -4.500000E+02  -4.500000E+02  -4.500000E+02  -4.500000E+02  -4.500000E+02  -4.500000E+02  -4.500000E+02  -4.500000E+02  -4.500000E+02  -4.500000E+02  -4.500000E+02  -4.500000E+02  -4.500000E+02
  -4.500000E+02  -4.500000E+02  -4.500000E+02  -4.500000E+02  -4.500000E+02  -4.500000E+02  -4.500000E+02  -4.500000E+02  -4.500000E+02  -4.500000E+02  -4.500000E+02  -4.500000E+02  -4.500000E+02  -4.500000E+02  -4.500000E+02
  -4.500000E+02  -4.500000E+02  -4.500000E+02  -4.500000E+02  -4.500000E+02  -4.500000E+02  -4.500000E+02  -4.500000E+02  -4.500000E+02  -4.500000E+02  -4.500000E+02  -4.500000E+02  -4.500000E+02  -4.500000E+02  -4.500000E+02
  -4.500000E+02  -4.500000E+02  -4.500000E+02  -4.500000E+02  -4.500000E+02  -4.500000E+02  -4.500000E+02  -4.500000E+02  -4.500000E+02  -4.500000E+02  -4.500000E+02  -4.500000E+02  -4.500000E+02  -4.500000E+02  -4.500000E+02
  -4.500000E+02  -4.500000E+02  -4.500000E+02  -4.500000E+02  -4.500000E+02  -4.500000E+02  -4.500000E+02  -4.500000E+02  -4.500000E+02  -4.500000E+02  -4.500000E+02  -4.500000E+02  -4.500000E+02  -4.500000E+02  -4.500000E+02
  -4.500000E+02  -4.500000E+02  -4.500000E+02  -4.500000E+02  -4.500000E+02  -4.500000E+02  -4.500000E+02  -4.500000E+02  -4.500000E+02  -4.500000E+02  -4.500000E+02  -4.500000E+02  -4.500000E+02  -4.500000E+02  -4.500000E+02
  -4.500000E+02  -4.500000E+02  -4.500000E+02  -4.500000E+02  -4.500000E+02  -4.500000E+02  -4.500000E+02  -4.500000E+02  -4.500000E+02  -4.500000E+02  -4.500000E+02  -4.500000E+02  -4.500000E+02  -4.500000E+02  -4.500000E+02
  -4.500000E+02  -4.500000E+02  -4.500000E+02  -4.500000E+02  -4.500000E+02  -4.500000E+02  -4.500000E+02  -4.500000E+02  -4.500000E+02  -4.500000E+02  -4.500000E+02  -4.500000E+02  -4.500000E+02  -4.500000E+02  -4.500000E+02
  -4.500000E+02  -4.500000E+02  -4.500000E+02  -4.500000E+02  -4.500000E+02  -4.500000E+02  -4.500000E+02  -4.500000E+02  -4.500000E+02  -4.500000E+02  -4.500000E+02  -4.500000E+02  -4.500000E+02  -4.500000E+02  -4.500000E+02
  -4.500000E+02  -4.500000E+02  -4.500000E+02  -4.500000E+02  -4.500000E+02  -4.500000E+02  -4.500000E+02  -4.500000E+02  -4.500000E+02  -4.500000E+02  -4.500000E+02  -4.500000E+02  -4.500000E+02  -4.500000E+02  -4.500000E+02
  -4.500000E+02  -4.500000E+02  -4.500000E+02  -4.500000E+02  -4.500000E+02  -4.500000E+02  -4.500000E+02  -4.500000E+02  -4.500000E+02  -4.500000E+02  -4.500000E+02  -4.500000E+02  -4.500000E+02  -4.500000E+02  -4.500000E+02
  -4.500000E+02  -4.500000E+02  -4.500000E+02  -4.500000E+02  -4.500000E+02  -4.500000E+02  -4.500000E+02  -4.500000E+02  -4.500000E+02  -4.500000E+02  -4.500000E+02  -4.500000E+02  -4.500000E+02  -4.500000E+02  -4.500000E+02
  86400.000000             1  1.000000  SS 
