# Name file for MODFLOW-2005, generated by Flopy version 3.3.3.
#xll:0.0; yll:0.0; rotation:0.0; units:undefined; lenuni:0; start_datetime:1-1-1970
LIST               2  twrihfb.list
DIS               11  twrihfb.dis
BAS6              13  twrihfb.bas
BCF6              15  twrihfb.bcf
WEL               20  twrihfb.wel
DRN               21  twrihfb.drn
RCH               19  twrihfb.rch
SIP               25  twrihfb.sip
OC                14  twrihfb.oc
HFB6              29  twrihfb.hfb
DATA(BINARY)      53  twrihfb.cbc REPLACE
DATA(BINARY)      51  twrihfb.hds REPLACE
