# Name file for MODFLOW-2005, generated by Flopy version 3.3.3.
#xll:0.0; yll:0.0; rotation:0.0; units:undefined; lenuni:0; start_datetime:1-1-1970
LIST               7  twri.lst
DIS               10  twri.dis
BAS6               8  twri.ba6
BCF6              11  twri.bc6
WEL               12  twri.wel
DRN               13  twri.drn
RCH               18  twri.rch
SIP               19  twri.sip
OC                50  twri.oc
DATA(BINARY)      51  twri.hds REPLACE
DATA(BINARY)      53  twri.cbc REPLACE
