# Name file for MODFLOW-2005, generated by Flopy version 3.3.3.
#xll:0.0; yll:0.0; rotation:0.0; units:feet; lenuni:1; start_datetime:1-1-1970
LIST              12  etsdrt.lst
DIS               21  etsdrt.dis
BAS6              31  etsdrt.bas
OC                50  etsdrt.oc
LPF               33  etsdrt.lpf
DRT               34  etsdrt.drt
RCH               36  etsdrt.rch
PCG               39  etsdrt.pcg
DATA(BINARY)      51  etsdrt.hds REPLACE
DATA(BINARY)      53  etsdrt.cbc REPLACE
