# Name file for MODFLOW-2005, generated by Flopy version 3.3.3.
#xll:0.0; yll:0.0; rotation:0.0; units:undefined; lenuni:0; start_datetime:1-1-1970
LIST               7  restest.lst
DIS               10  restest.dis
BAS6               8  restest.ba6
BCF6              11  restest.bc6
GHB               17  restest.ghb
SIP               19  restest.sip
OC                50  restest.oc
DATA(BINARY)      51  restest.hds REPLACE
DATA(BINARY)      53  restest.cbc REPLACE
