# Name file for MODFLOW-2005, generated by Flopy version 3.3.3.
#xll:0.0; yll:0.0; rotation:0.0; units:undefined; lenuni:0; start_datetime:1-1-1970
LIST               1  ibs2k.lst
DIS               10  ibs2k.dis
BAS6               2  ibs2k.ba6
BCF6               7  ibs2k.bc6
OC                50  ibs2k.oc
SIP               19  ibs2k.sip
DATA(BINARY)      51  ibs2k.hds REPLACE
DATA(BINARY)      53  ibs2k.cbc REPLACE
