# Name file for SEAWAT, generated by Flopy version 3.3.3.
LIST               2  case1.list
DIS               11  case1.dis
BAS6              13  case1.bas
BCF6              15  case1.bcf
SIP               25  case1.sip
OC                14  case1.oc
BTN               31  case1.btn
ADV               32  case1.adv
DSP               33  case1.dsp
GCG               35  case1.gcg
VDF               37  case1.vdf
